<?xml version="1.0" encoding="utf-8"?>
<Project>
  <ProjectOutputs>
    <ProjectOutput>
      <FullPath>C:\Users\DELL\source\repos\mySolver\OpenFAST_WAT_distKxr_improved\build\bin\MAP_x64.dll</FullPath>
    </ProjectOutput>
  </ProjectOutputs>
  <ContentFiles />
  <SatelliteDlls />
  <NonRecipeFileRefs />
</Project>